@<TRIPOS>MOLECULE
*****
 33 34 0 0 0
SMALL
GASTEIGER

@<TRIPOS>ATOM
      1 C         -10.4336    4.0197    0.0222 C.3     1  UNL1        0.0788
      2 O          -9.1636    3.4814    0.0183 O.3     1  UNL1       -0.4951
      3 H         -10.9778    3.7265   -0.9008 H       1  UNL1        0.0660
      4 H         -10.3580    5.1259    0.0517 H       1  UNL1        0.0660
      5 H         -10.9924    3.6789    0.9199 H       1  UNL1        0.0660
      6 C          -8.8635    2.1575   -0.0139 C.ar    1  UNL1        0.1208
      7 C          -9.8664    1.1464   -0.0483 C.ar    1  UNL1       -0.0180
      8 C          -7.5041    1.7861   -0.0127 C.ar    1  UNL1       -0.0105
      9 C          -7.1876    0.4283   -0.0457 C.ar    1  UNL1        0.0063
     10 C          -9.5128   -0.2144   -0.0810 C.ar    1  UNL1       -0.0343
     11 C          -8.1585   -0.5371   -0.0786 C.ar    1  UNL1        0.0470
     12 C          -5.9687   -0.2213   -0.0530 C.ar    1  UNL1       -0.0208
     13 C          -6.2703   -1.5839   -0.0910 C.ar    1  UNL1        0.0060
     14 N          -7.6105   -1.7640   -0.1063 N.ar    1  UNL1       -0.3604
     15 C          -4.6160    0.4420   -0.0249 C.3     1  UNL1       -0.0101
     16 C          -3.4496   -0.5548   -0.0417 C.3     1  UNL1        0.0156
     17 H          -4.5482    1.0612    0.8957 H       1  UNL1        0.0329
     18 H          -4.5338    1.1084   -0.9106 H       1  UNL1        0.0329
     19 N          -2.1741    0.1383   -0.0134 N.am    1  UNL1       -0.3152
     20 H          -3.5086   -1.1714   -0.9657 H       1  UNL1        0.0465
     21 H          -3.5229   -1.2188    0.8479 H       1  UNL1        0.0465
     22 C          -0.9924   -0.5342   -0.0217 C.2     1  UNL1        0.2099
     23 C           0.3011    0.2234    0.0084 C.3     1  UNL1        0.0121
     24 H           0.3649    0.8871   -0.8792 H       1  UNL1        0.0322
     25 H           1.1665   -0.4734   -0.0030 H       1  UNL1        0.0322
     26 H           0.3506    0.8398    0.9303 H       1  UNL1        0.0322
     27 O          -0.9716   -1.7568   -0.0535 O.2     1  UNL1       -0.2761
     28 H          -8.1155   -2.6776   -0.1342 H       1  UNL1        0.1653
     29 H          -5.5579   -2.3980   -0.1066 H       1  UNL1        0.0810
     30 H         -10.9170    1.4032   -0.0499 H       1  UNL1        0.0655
     31 H         -10.2711   -0.9862   -0.1072 H       1  UNL1        0.0639
     32 H          -6.7244    2.5370    0.0131 H       1  UNL1        0.0661
     33 H          -2.1562    1.1701    0.0137 H       1  UNL1        0.1487
@<TRIPOS>BOND
     1     1     2    1
     2     1     3    1
     3     1     4    1
     4     1     5    1
     5     2     6    1
     6     6     7   ar
     7     6     8   ar
     8     8     9   ar
     9     7    10   ar
    10    10    11   ar
    11    11     9   ar
    12     9    12   ar
    13    12    13   ar
    14    11    14   ar
    15    14    13   ar
    16    12    15    1
    17    15    16    1
    18    15    17    1
    19    15    18    1
    20    16    19    1
    21    16    20    1
    22    16    21    1
    23    19    22   am
    24    22    23    1
    25    23    24    1
    26    23    25    1
    27    23    26    1
    28    22    27    2
    29    14    28    1
    30    13    29    1
    31     7    30    1
    32    10    31    1
    33     8    32    1
    34    19    33    1
